REMARK  Name = 
REMARK  22 active torsions:
REMARK  status: ('A' for Active; 'I' for Inactive)
REMARK    1  A    between atoms: C_1  and  C_2
REMARK    2  A    between atoms: C_2  and  C_3
REMARK    3  A    between atoms: C_3  and  C_4
REMARK    4  A    between atoms: C_4  and  C_5
REMARK    5  A    between atoms: C_5  and  C_6
REMARK    6  A    between atoms: C_6  and  C_7
REMARK    7  A    between atoms: C_7  and  C_8
REMARK    8  A    between atoms: C_8  and  C_9
REMARK    9  A    between atoms: C_9  and  C_10
REMARK   10  A    between atoms: C_10  and  C_11
REMARK   11  A    between atoms: C_11  and  C_12
REMARK   12  A    between atoms: C_12  and  C_13
REMARK   13  A    between atoms: C_13  and  C_14
REMARK   14  A    between atoms: C_14  and  C_15
REMARK   15  A    between atoms: C_15  and  C_16
REMARK   16  A    between atoms: C_16  and  C_17
REMARK   17  A    between atoms: C_17  and  C_18
REMARK   18  A    between atoms: C_18  and  C_19
REMARK   19  A    between atoms: C_19  and  C_20
REMARK   20  A    between atoms: C_20  and  C_21
REMARK   21  A    between atoms: C_21  and  C_22
REMARK   22  A    between atoms: C_22  and  O_23
REMARK                            x       y       z     vdW  Elec       q    Type
REMARK                         _______ _______ _______ _____ _____    ______ ____
ROOT
ATOM      1  C   UNL     1      12.682  -6.421  -3.191  0.00  0.00    -0.000 C 
ENDROOT
BRANCH   1   2
ATOM      2  C   UNL     1      13.201  -7.694  -3.845  0.00  0.00    -0.000 C 
BRANCH   2   3
ATOM      3  C   UNL     1      14.724  -7.706  -3.851  0.00  0.00    -0.000 C 
BRANCH   3   4
ATOM      4  C   UNL     1      15.244  -8.979  -4.505  0.00  0.00    -0.000 C 
BRANCH   4   5
ATOM      5  C   UNL     1      16.767  -8.993  -4.511  0.00  0.00    -0.000 C 
BRANCH   5   6
ATOM      6  C   UNL     1      17.288 -10.266  -5.165  0.00  0.00    +0.000 C 
BRANCH   6   7
ATOM      7  C   UNL     1      18.812 -10.280  -5.172  0.00  0.00    +0.000 C 
BRANCH   7   8
ATOM      8  C   UNL     1      19.338 -11.552  -5.828  0.00  0.00    +0.000 C 
BRANCH   8   9
ATOM      9  C   UNL     1      20.865 -11.566  -5.834  0.00  0.00    +0.002 C 
BRANCH   9  10
ATOM     10  C   UNL     1      21.399 -12.837  -6.485  0.00  0.00    +0.028 C 
BRANCH  10  11
ATOM     11  C   UNL     1      22.920 -12.855  -6.494  0.00  0.00    +0.156 C 
BRANCH  11  12
ATOM     12  O   UNL     1      23.382 -14.051  -7.107  0.00  0.00    -0.395 OA
ATOM     13  H   UNL     1      23.025 -14.797  -6.597  0.00  0.00    +0.209 HD
ENDBRANCH  11  12
ENDBRANCH  10  11
ENDBRANCH   9  10
ENDBRANCH   8   9
ENDBRANCH   7   8
ENDBRANCH   6   7
ENDBRANCH   5   6
ENDBRANCH   4   5
ENDBRANCH   3   4
ENDBRANCH   2   3
ENDBRANCH   1   2
BRANCH   1  14
ATOM     14  C   UNL     1      11.159  -6.410  -3.184  0.00  0.00    -0.000 C 
BRANCH  14  15
ATOM     15  C   UNL     1      10.639  -5.137  -2.531  0.00  0.00    -0.000 C 
BRANCH  15  16
ATOM     16  C   UNL     1       9.117  -5.126  -2.523  0.00  0.00    -0.000 C 
BRANCH  16  17
ATOM     17  C   UNL     1       8.596  -3.852  -1.871  0.00  0.00    -0.000 C 
BRANCH  17  18
ATOM     18  C   UNL     1       7.074  -3.840  -1.861  0.00  0.00    -0.000 C 
BRANCH  18  19
ATOM     19  C   UNL     1       6.551  -2.565  -1.209  0.00  0.00    -0.000 C 
BRANCH  19  20
ATOM     20  C   UNL     1       5.028  -2.551  -1.199  0.00  0.00    -0.000 C 
BRANCH  20  21
ATOM     21  C   UNL     1       4.500  -1.277  -0.548  0.00  0.00    -0.000 C 
BRANCH  21  22
ATOM     22  C   UNL     1       2.975  -1.266  -0.538  0.00  0.00    -0.000 C 
BRANCH  22  24
ATOM     23  C   UNL     1       0.918   0.017   0.120  0.00  0.00    +0.004 C 
ATOM     24  C   UNL     1       2.437   0.006   0.111  0.00  0.00    -0.003 C 
ENDBRANCH  22  24
ENDBRANCH  21  22
ENDBRANCH  20  21
ENDBRANCH  19  20
ENDBRANCH  18  19
ENDBRANCH  17  18
ENDBRANCH  16  17
ENDBRANCH  15  16
ENDBRANCH  14  15
ENDBRANCH   1  14
TORSDOF 21
