REMARK  Name = 
REMARK  11 active torsions:
REMARK  status: ('A' for Active; 'I' for Inactive)
REMARK    1  A    between atoms: C_16  and  C_23
REMARK    2  A    between atoms: N_19  and  C_20
REMARK    3  A    between atoms: C_20  and  C_21
REMARK    4  A    between atoms: N_25  and  C_26
REMARK    5  A    between atoms: C_26  and  C_27
REMARK    6  A    between atoms: C_27  and  C_28
REMARK    7  A    between atoms: C_28  and  N_29
REMARK    8  A    between atoms: N_29  and  C_30
REMARK    9  A    between atoms: N_29  and  C_31
REMARK   10  A    between atoms: N_34  and  C_35
REMARK   11  A    between atoms: C_35  and  C_36
REMARK                            x       y       z     vdW  Elec       q    Type
REMARK                         _______ _______ _______ _____ _____    ______ ____
ROOT
ATOM      1  C   UNL     1       2.796  -1.522  -0.081  0.00  0.00    +0.069 C 
ATOM      2  N   UNL     1       3.282  -1.863   1.259  0.00  0.00    -0.294 NA
ATOM      3  C   UNL     1       2.019  -1.889   2.064  0.00  0.00    +0.097 C 
ATOM      4  C   UNL     1       0.774  -1.012   1.531  0.00  0.00    +0.090 C 
ATOM      5  C   UNL     1       1.434   0.324   1.006  0.00  0.00    +0.023 C 
ATOM      6  C   UNL     1       2.439   0.032  -0.178  0.00  0.00    +0.038 C 
ATOM      7  C   UNL     1       2.057   0.382  -1.603  0.00  0.00    -0.033 A 
ATOM      8  C   UNL     1       2.131  -0.638  -2.568  0.00  0.00    +0.006 A 
ATOM      9  C   UNL     1       1.770  -0.469  -3.884  0.00  0.00    +0.047 A 
ATOM     10  C   UNL     1       1.528   0.800  -4.398  0.00  0.00    +0.026 A 
ATOM     11  C   UNL     1       1.640   1.870  -3.489  0.00  0.00    +0.002 A 
ATOM     12  N   UNL     1       1.777  -1.735  -4.432  0.00  0.00    -0.360 N 
ATOM     13  H   UNL     1       1.462  -1.958  -5.365  0.00  0.00    +0.165 HD
ATOM     14  C   UNL     1       2.352  -2.633  -3.558  0.00  0.00    +0.087 A 
ATOM     15  C   UNL     1       2.732  -1.911  -2.455  0.00  0.00    -0.021 A 
ATOM     16  C   UNL     1       1.850   1.667  -2.111  0.00  0.00    +0.004 A 
ATOM     17  C   UNL     1       3.537  -2.204  -1.238  0.00  0.00    +0.056 C 
ENDROOT
BRANCH   4  18
ATOM     18  C   UNL     1      -0.350  -1.379   0.407  0.00  0.00    +0.227 C 
ATOM     19  N   UNL     1      -1.033  -2.602   0.236  0.00  0.00    -0.226 N 
ATOM     20  C   UNL     1      -0.930  -3.622   1.165  0.00  0.00    +0.309 C 
ATOM     21  N   UNL     1      -1.534  -4.806   0.787  0.00  0.00    -0.299 N 
ATOM     22  H   UNL     1      -1.730  -4.964  -0.193  0.00  0.00    +0.150 HD
ATOM     23  O   UNL     1      -0.397  -3.494   2.265  0.00  0.00    -0.252 OA
ATOM     24  O   UNL     1      -0.758  -0.425  -0.285  0.00  0.00    -0.275 OA
BRANCH  21  25
ATOM     25  C   UNL     1      -1.336  -5.990   1.593  0.00  0.00    +0.102 C 
ATOM     26  C   UNL     1      -2.316  -7.075   1.208  0.00  0.00    +0.024 C 
ENDBRANCH  21  25
BRANCH  19  27
ATOM     27  C   UNL     1      -2.222  -2.618  -0.693  0.00  0.00    +0.119 C 
BRANCH  27  28
ATOM     28  C   UNL     1      -2.058  -2.960  -2.195  0.00  0.00    +0.035 C 
BRANCH  28  29
ATOM     29  C   UNL     1      -1.890  -4.401  -2.750  0.00  0.00    +0.085 C 
BRANCH  29  30
ATOM     30  N   UNL     1      -2.783  -5.529  -2.385  0.00  0.00    -0.308 NA
ATOM     31  C   UNL     1      -2.346  -6.734  -3.137  0.00  0.00    +0.104 C 
ATOM     32  C   UNL     1      -4.195  -5.312  -2.738  0.00  0.00    +0.104 C 
ENDBRANCH  29  30
ENDBRANCH  28  29
ENDBRANCH  27  28
ENDBRANCH  19  27
ENDBRANCH   4  18
BRANCH   2  33
ATOM     33  C   UNL     1       4.355  -0.925   1.657  0.00  0.00    +0.111 C 
BRANCH  33  34
ATOM     34  C   UNL     1       5.350  -1.299   2.713  0.00  0.00    -0.019 C 
ATOM     35  C   UNL     1       5.339  -2.353   3.525  0.00  0.00    +0.005 C 
ENDBRANCH  33  34
ENDBRANCH   2  33
TORSDOF 8
