REMARK  Name = 
REMARK  13 active torsions:
REMARK  status: ('A' for Active; 'I' for Inactive)
REMARK    1  A    between atoms: C_2  and  C_3
REMARK    2  A    between atoms: C_2  and  C_7
REMARK    3  A    between atoms: C_2  and  C_12
REMARK    4  A    between atoms: C_3  and  C_4
REMARK    5  A    between atoms: C_4  and  C_5
REMARK    6  A    between atoms: C_4  and  C_6
REMARK    7  A    between atoms: C_7  and  C_8
REMARK    8  A    between atoms: N_10  and  O_11
REMARK    9  A    between atoms: N_14  and  C_15
REMARK   10  A    between atoms: C_15  and  C_17
REMARK   11  A    between atoms: C_15  and  C_27
REMARK   12  A    between atoms: C_17  and  C_18
REMARK   13  A    between atoms: N_29  and  C_30
REMARK                            x       y       z     vdW  Elec       q    Type
REMARK                         _______ _______ _______ _____ _____    ______ ____
ROOT
ATOM      1  C   UNL     1       4.348   2.600  -1.652  0.00  0.00    +0.163 C 
ENDROOT
BRANCH   1   2
ATOM      2  C   UNL     1       5.835   2.790  -1.262  0.00  0.00    +0.233 C 
ATOM      3  N   UNL     1       6.502   3.802  -1.923  0.00  0.00    -0.317 N 
ATOM      4  H   UNL     1       6.010   4.367  -2.602  0.00  0.00    +0.148 HD
ATOM      5  C   UNL     1       7.858   4.173  -1.598  0.00  0.00    +0.128 C 
ATOM      6  O   UNL     1       6.387   2.058  -0.438  0.00  0.00    -0.274 OA
ENDBRANCH   1   2
BRANCH   1   8
ATOM      7  C   UNL     1       2.612   0.895  -1.124  0.00  0.00    +0.217 C 
ATOM      8  N   UNL     1       3.842   1.448  -0.900  0.00  0.00    -0.303 N 
ATOM      9  H   UNL     1       4.472   1.057  -0.203  0.00  0.00    +0.149 HD
ATOM     10  O   UNL     1       1.821   1.368  -1.940  0.00  0.00    -0.275 OA
BRANCH   7  11
ATOM     11  C   UNL     1       2.287  -0.353  -0.307  0.00  0.00    +0.084 C 
BRANCH  11  12
ATOM     12  C   UNL     1       0.823  -0.747  -0.567  0.00  0.00    +0.110 C 
BRANCH  12  13
ATOM     13  C   UNL     1       0.347  -1.892   0.293  0.00  0.00    +0.236 C 
ATOM     14  N   UNL     1      -0.645  -2.645  -0.290  0.00  0.00    -0.197 N 
ATOM     15  H   UNL     1      -1.236  -2.294  -1.037  0.00  0.00    +0.182 HD
ATOM     16  O   UNL     1       0.772  -2.135   1.420  0.00  0.00    -0.274 OA
BRANCH  14  17
ATOM     17  O   UNL     1      -1.187  -3.670   0.519  0.00  0.00    -0.295 OA
ATOM     18  H   UNL     1      -0.638  -3.608   1.332  0.00  0.00    +0.241 HD
ENDBRANCH  14  17
ENDBRANCH  12  13
ENDBRANCH  11  12
BRANCH  11  19
ATOM     19  C   UNL     1       3.287  -1.507  -0.562  0.00  0.00    +0.016 C 
BRANCH  19  20
ATOM     20  C   UNL     1       3.267  -2.165  -1.961  0.00  0.00    -0.016 C 
ATOM     21  C   UNL     1       4.169  -3.404  -1.957  0.00  0.00    +0.007 C 
ATOM     22  C   UNL     1       3.728  -1.230  -3.079  0.00  0.00    +0.007 C 
ENDBRANCH  19  20
ENDBRANCH  11  19
ENDBRANCH   7  11
ENDBRANCH   1   8
BRANCH   1  23
ATOM     23  C   UNL     1       3.515   3.886  -1.459  0.00  0.00    +0.069 C 
BRANCH  23  24
ATOM     24  C   UNL     1       3.500   4.370  -0.041  0.00  0.00    -0.020 A 
ATOM     25  C   UNL     1       2.533   4.063   0.969  0.00  0.00    +0.003 A 
ATOM     26  C   UNL     1       3.005   4.595   2.169  0.00  0.00    +0.047 A 
ATOM     27  C   UNL     1       2.349   4.414   3.390  0.00  0.00    +0.026 A 
ATOM     28  C   UNL     1       1.153   3.692   3.381  0.00  0.00    +0.002 A 
ATOM     29  C   UNL     1       0.636   3.176   2.196  0.00  0.00    +0.001 A 
ATOM     30  N   UNL     1       4.170   5.266   1.883  0.00  0.00    -0.360 N 
ATOM     31  H   UNL     1       4.736   5.745   2.567  0.00  0.00    +0.165 HD
ATOM     32  C   UNL     1       1.316   3.351   0.986  0.00  0.00    +0.010 A 
ATOM     33  C   UNL     1       4.451   5.180   0.547  0.00  0.00    +0.087 A 
ENDBRANCH  23  24
ENDBRANCH   1  23
TORSDOF 10
