REMARK  Name = 
REMARK  15 active torsions:
REMARK  status: ('A' for Active; 'I' for Inactive)
REMARK    1  A    between atoms: C_1  and  C_2
REMARK    2  A    between atoms: C_2  and  C_3
REMARK    3  A    between atoms: C_3  and  C_4
REMARK    4  A    between atoms: C_4  and  C_5
REMARK    5  A    between atoms: C_5  and  C_6
REMARK    6  A    between atoms: C_6  and  C_7
REMARK    7  A    between atoms: C_7  and  C_8
REMARK    8  A    between atoms: C_8  and  C_9
REMARK    9  A    between atoms: C_9  and  C_10
REMARK   10  A    between atoms: C_10  and  C_11
REMARK   11  A    between atoms: C_11  and  C_12
REMARK   12  A    between atoms: C_12  and  C_13
REMARK   13  A    between atoms: C_13  and  C_14
REMARK   14  A    between atoms: C_14  and  C_15
REMARK   15  A    between atoms: C_15  and  C_16
REMARK                            x       y       z     vdW  Elec       q    Type
REMARK                         _______ _______ _______ _____ _____    ______ ____
ROOT
ATOM      1  C   UNL     1       9.150   1.808  -5.396  0.00  0.00    -0.000 C 
ENDROOT
BRANCH   1   2
ATOM      2  C   UNL     1       8.626   1.373  -4.031  0.00  0.00    -0.000 C 
BRANCH   2   3
ATOM      3  C   UNL     1       7.101   1.367  -4.012  0.00  0.00    -0.000 C 
BRANCH   3   4
ATOM      4  C   UNL     1       6.578   0.932  -2.647  0.00  0.00    -0.000 C 
BRANCH   4   5
ATOM      5  C   UNL     1       5.052   0.924  -2.628  0.00  0.00    -0.000 C 
BRANCH   5   6
ATOM      6  C   UNL     1       4.524   0.492  -1.263  0.00  0.00    -0.000 C 
BRANCH   6   7
ATOM      7  C   UNL     1       2.997   0.483  -1.248  0.00  0.00    -0.000 C 
BRANCH   7   9
ATOM      8  C   UNL     1       0.942   0.046   0.129  0.00  0.00    +0.004 C 
ATOM      9  C   UNL     1       2.461   0.053   0.115  0.00  0.00    -0.003 C 
ENDBRANCH   7   9
ENDBRANCH   6   7
ENDBRANCH   5   6
ENDBRANCH   4   5
ENDBRANCH   3   4
ENDBRANCH   2   3
ENDBRANCH   1   2
BRANCH   1  10
ATOM     10  C   UNL     1      10.675   1.815  -5.414  0.00  0.00    +0.000 C 
BRANCH  10  11
ATOM     11  C   UNL     1      11.199   2.251  -6.779  0.00  0.00    +0.000 C 
BRANCH  11  12
ATOM     12  C   UNL     1      12.725   2.257  -6.798  0.00  0.00    +0.000 C 
BRANCH  12  13
ATOM     13  C   UNL     1      13.253   2.694  -8.162  0.00  0.00    +0.000 C 
BRANCH  13  14
ATOM     14  C   UNL     1      14.779   2.698  -8.178  0.00  0.00    +0.007 C 
BRANCH  14  15
ATOM     15  C   UNL     1      15.316   3.132  -9.536  0.00  0.00    +0.071 C 
BRANCH  15  16
ATOM     16  C   UNL     1      16.824   3.145  -9.578  0.00  0.00    +0.223 C 
ATOM     17  O   UNL     1      17.554   2.846  -8.639  0.00  0.00    -0.301 OA
ENDBRANCH  15  16
ENDBRANCH  14  15
ENDBRANCH  13  14
ENDBRANCH  12  13
ENDBRANCH  11  12
ENDBRANCH  10  11
ENDBRANCH   1  10
TORSDOF 14
