REMARK  Name = 
REMARK  17 active torsions:
REMARK  status: ('A' for Active; 'I' for Inactive)
REMARK    1  A    between atoms: C_1  and  C_2
REMARK    2  A    between atoms: C_2  and  C_3
REMARK    3  A    between atoms: C_3  and  C_4
REMARK    4  A    between atoms: C_4  and  C_5
REMARK    5  A    between atoms: C_5  and  C_6
REMARK    6  A    between atoms: C_6  and  C_7
REMARK    7  A    between atoms: C_7  and  C_8
REMARK    8  A    between atoms: C_8  and  O_10
REMARK    9  A    between atoms: O_10  and  C_11
REMARK   10  A    between atoms: C_11  and  C_13
REMARK   11  A    between atoms: C_11  and  C_17
REMARK   12  A    between atoms: C_13  and  C_14
REMARK   13  A    between atoms: C_14  and  O_15
REMARK   14  A    between atoms: C_17  and  N_18
REMARK   15  A    between atoms: N_18  and  C_19
REMARK   16  A    between atoms: N_18  and  C_20
REMARK   17  A    between atoms: N_18  and  C_21
REMARK                            x       y       z     vdW  Elec       q    Type
REMARK                         _______ _______ _______ _____ _____    ______ ____
ROOT
ATOM      1  C   UNL     1      10.634  -4.182   3.452  0.00  0.00    +0.232 C 
ENDROOT
BRANCH   1   2
ATOM      2  O   UNL     1       9.188  -4.226   3.561  0.00  0.00    -0.455 OA
BRANCH   2   3
ATOM      3  C   UNL     1       8.508  -3.899   2.418  0.00  0.00    +0.308 C 
ATOM      4  O   UNL     1       9.041  -3.674   1.342  0.00  0.00    -0.251 OA
BRANCH   3   5
ATOM      5  C   UNL     1       7.026  -3.839   2.668  0.00  0.00    +0.120 C 
BRANCH   5   6
ATOM      6  C   UNL     1       6.622  -2.540   3.360  0.00  0.00    +0.011 C 
BRANCH   6   7
ATOM      7  C   UNL     1       5.106  -2.481   3.563  0.00  0.00    +0.001 C 
BRANCH   7   8
ATOM      8  C   UNL     1       4.668  -1.201   4.280  0.00  0.00    +0.000 C 
BRANCH   8   9
ATOM      9  C   UNL     1       3.150  -1.172   4.477  0.00  0.00    -0.000 C 
BRANCH   9  11
ATOM     10  C   UNL     1       1.187   0.115   5.389  0.00  0.00    +0.004 C 
ATOM     11  C   UNL     1       2.696   0.100   5.195  0.00  0.00    -0.003 C 
ENDBRANCH   9  11
ENDBRANCH   8   9
ENDBRANCH   7   8
ENDBRANCH   6   7
ENDBRANCH   5   6
ENDBRANCH   3   5
ENDBRANCH   2   3
ENDBRANCH   1   2
BRANCH   1  12
ATOM     12  C   UNL     1      11.273  -4.871   4.688  0.00  0.00    +0.178 C 
BRANCH  12  13
ATOM     13  N   UNL     1      10.979  -6.387   4.879  0.00  0.00    +0.239 N 
ATOM     14  C   UNL     1      11.703  -6.819   6.164  0.00  0.00    +0.192 C 
ATOM     15  C   UNL     1      11.519  -7.221   3.724  0.00  0.00    +0.192 C 
ATOM     16  C   UNL     1       9.495  -6.675   5.065  0.00  0.00    +0.192 C 
ENDBRANCH  12  13
ENDBRANCH   1  12
BRANCH   1  17
ATOM     17  C   UNL     1      11.024  -2.705   3.437  0.00  0.00    +0.170 C 
BRANCH  17  18
ATOM     18  C   UNL     1      12.483  -2.476   3.180  0.00  0.00    +0.308 C 
ATOM     19  O   UNL     1      13.353  -2.504   4.026  0.00  0.00    -0.251 OA
BRANCH  18  20
ATOM     20  O   UNL     1      12.683  -2.181   1.891  0.00  0.00    -0.481 OA
ATOM     21  H   UNL     1      13.430  -1.552   1.818  0.00  0.00    +0.295 HD
ENDBRANCH  18  20
ENDBRANCH  17  18
ENDBRANCH   1  17
TORSDOF 13
