REMARK  Name = 
REMARK  9 active torsions:
REMARK  status: ('A' for Active; 'I' for Inactive)
REMARK    1  A    between atoms: O_1  and  C_2
REMARK    2  A    between atoms: C_2  and  C_4
REMARK    3  A    between atoms: C_4  and  C_5
REMARK    4  A    between atoms: C_5  and  C_6
REMARK    5  A    between atoms: C_6  and  C_7
REMARK    6  A    between atoms: C_7  and  C_8
REMARK    7  A    between atoms: C_8  and  C_9
REMARK    8  A    between atoms: C_9  and  C_10
REMARK    9  A    between atoms: C_11  and  C_12
REMARK                            x       y       z     vdW  Elec       q    Type
REMARK                         _______ _______ _______ _____ _____    ______ ____
ROOT
ATOM      1  C   UNL     1      -0.000  -0.000  -0.000  0.00  0.00    +0.000 C 
ATOM      2  N   UNL     1      -0.000  -0.000   0.000  0.00  0.00    +0.000 NA
ATOM      3  C   UNL     1      -0.000  -0.000  -0.000  0.00  0.00    +0.000 C 
ATOM      4  C   UNL     1      -0.000  -0.000  -0.000  0.00  0.00    +0.000 C 
ATOM      5  C   UNL     1      -0.000  -0.000  -0.000  0.00  0.00    +0.000 C 
ATOM      6  C   UNL     1      -0.000  -0.000   0.000  0.00  0.00    +0.000 C 
ATOM      7  C   UNL     1      -0.000  -0.000   0.000  0.00  0.00    +0.000 C 
ATOM      8  C   UNL     1      -0.000  -0.000  -0.000  0.00  0.00    +0.000 C 
ATOM      9  O   UNL     1      -0.000  -0.000  -0.000  0.00  0.00    +0.000 OA
ATOM     10  O   UNL     1      -0.000  -0.000  -0.000  0.00  0.00    +0.000 OA
ATOM     11  C   UNL     1      -0.000  -0.000  -0.000  0.00  0.00    +0.000 C 
ATOM     12  C   UNL     1      -0.000  -0.000  -0.000  0.00  0.00    +0.000 C 
ATOM     13  C   UNL     1      -0.000  -0.000  -0.000  0.00  0.00    +0.000 C 
ATOM     14  O   UNL     1      -0.000  -0.000  -0.000  0.00  0.00    +0.000 OA
ATOM     15  N   UNL     1      -0.000  -0.000  -0.000  0.00  0.00    +0.000 N 
ATOM     16  H   UNL     1       0.000   0.000   0.000  0.00  0.00    +0.000 HD
ATOM     17  C   UNL     1      -0.000  -0.000  -0.000  0.00  0.00    +0.000 C 
ATOM     18  C   UNL     1      -0.000  -0.000  -0.000  0.00  0.00    +0.000 C 
ATOM     19  O   UNL     1      -0.000  -0.000  -0.000  0.00  0.00    +0.000 OA
ATOM     20  N   UNL     1      -0.000  -0.000  -0.000  0.00  0.00    +0.000 N 
ATOM     21  O   UNL     1      -0.000  -0.000  -0.000  0.00  0.00    +0.000 OA
ATOM     22 FE   UNL     1      -0.000  -0.000  -0.000  0.00  0.00    +0.000 Fe
ATOM     23  O   UNL     1      -0.000  -0.000  -0.000  0.00  0.00    +0.000 OA
ATOM     24  C   UNL     1      -0.000  -0.000  -0.000  0.00  0.00    +0.000 A 
ATOM     25  C   UNL     1      -0.000  -0.000  -0.000  0.00  0.00    +0.000 A 
ATOM     26  C   UNL     1      -0.000  -0.000   0.000  0.00  0.00    +0.000 A 
ATOM     27  C   UNL     1      -0.000  -0.000  -0.000  0.00  0.00    +0.000 A 
ATOM     28  C   UNL     1      -0.000  -0.000  -0.000  0.00  0.00    +0.000 A 
ATOM     29  C   UNL     1      -0.000  -0.000  -0.000  0.00  0.00    +0.000 C 
ATOM     30  N   UNL     1      -0.000  -0.000  -0.000  0.00  0.00    +0.000 NA
ATOM     31  H   UNL     1       0.000   0.000   0.000  0.00  0.00    +0.000 HD
ATOM     32  C   UNL     1      -0.000  -0.000  -0.000  0.00  0.00    +0.000 C 
ATOM     33  C   UNL     1      -0.000  -0.000  -0.000  0.00  0.00    +0.000 C 
ATOM     34  C   UNL     1      -0.000  -0.000  -0.000  0.00  0.00    +0.000 C 
ATOM     35  O   UNL     1      -0.000  -0.000   0.000  0.00  0.00    +0.000 OA
ATOM     36  O   UNL     1      -0.000  -0.000  -0.000  0.00  0.00    +0.000 OA
ATOM     37  C   UNL     1      -0.000  -0.000  -0.000  0.00  0.00    +0.000 A 
ATOM     38  C   UNL     1      -0.000  -0.000  -0.000  0.00  0.00    +0.000 C 
ATOM     39  C   UNL     1      -0.000  -0.000  -0.000  0.00  0.00    +0.000 C 
ATOM     40  C   UNL     1      -0.000  -0.000  -0.000  0.00  0.00    +0.000 C 
ATOM     41  C   UNL     1      -0.000  -0.000  -0.000  0.00  0.00    +0.000 C 
ATOM     42  N   UNL     1      -0.000  -0.000  -0.000  0.00  0.00    +0.000 N 
ATOM     43  H   UNL     1       0.000   0.000   0.000  0.00  0.00    +0.000 HD
ATOM     44  O   UNL     1      -0.000  -0.000   0.000  0.00  0.00    +0.000 OA
ATOM     45  O   UNL     1      -0.000  -0.000  -0.000  0.00  0.00    +0.000 OA
ENDROOT
BRANCH   1  47
ATOM     46  C   UNL     1      -0.000  -0.000  -0.000  0.00  0.00    +0.000 C 
ATOM     47  C   UNL     1      -0.000  -0.000  -0.000  0.00  0.00    +0.000 C 
BRANCH  46  48
ATOM     48  C   UNL     1      -0.000  -0.000  -0.000  0.00  0.00    +0.000 C 
BRANCH  48  49
ATOM     49  C   UNL     1      -0.000  -0.000  -0.000  0.00  0.00    +0.000 C 
BRANCH  49  50
ATOM     50  C   UNL     1      -0.000  -0.000  -0.000  0.00  0.00    +0.000 C 
BRANCH  50  51
ATOM     51  C   UNL     1      -0.000  -0.000  -0.000  0.00  0.00    +0.000 C 
BRANCH  51  52
ATOM     52  C   UNL     1      -0.000  -0.000  -0.000  0.00  0.00    +0.000 C 
BRANCH  52  53
ATOM     53  C   UNL     1      -0.000  -0.000  -0.000  0.00  0.00    +0.000 C 
BRANCH  53  54
ATOM     54  C   UNL     1      -0.000  -0.000  -0.000  0.00  0.00    +0.000 C 
ATOM     55  O   UNL     1      -0.000  -0.000  -0.000  0.00  0.00    +0.000 OA
BRANCH  54  56
ATOM     56  O   UNL     1      -0.000  -0.000  -0.000  0.00  0.00    +0.000 OA
ATOM     57  H   UNL     1      -0.000  -0.000  -0.000  0.00  0.00    +0.000 HD
ENDBRANCH  54  56
ENDBRANCH  53  54
ENDBRANCH  52  53
ENDBRANCH  51  52
ENDBRANCH  50  51
ENDBRANCH  49  50
ENDBRANCH  48  49
ENDBRANCH  46  48
ENDBRANCH   1  47
TORSDOF 9
