REMARK  Name = 
REMARK  5 active torsions:
REMARK  status: ('A' for Active; 'I' for Inactive)
REMARK    1  A    between atoms: C_5  and  O_6
REMARK    2  A    between atoms: C_5  and  C_7
REMARK    3  A    between atoms: C_9  and  C_10
REMARK    4  A    between atoms: C_22  and  O_23
REMARK    5  A    between atoms: O_23  and  C_24
REMARK                            x       y       z     vdW  Elec       q    Type
REMARK                         _______ _______ _______ _____ _____    ______ ____
ROOT
ATOM      1  C   UNL     1      -0.000  -0.000  -0.000  0.00  0.00    +0.002 C 
ATOM      2  C   UNL     1      -0.000  -0.000   0.000  0.00  0.00    +0.000 C 
ATOM      3  C   UNL     1      -0.000  -0.000   0.000  0.00  0.00    +0.023 C 
ATOM      4  C   UNL     1      -0.000  -0.000  -0.000  0.00  0.00    -0.041 A 
ATOM      5  C   UNL     1      -0.000  -0.000   0.000  0.00  0.00    +0.008 A 
ATOM      6  C   UNL     1      -0.000  -0.000   0.000  0.00  0.00    +0.046 A 
ATOM      7  C   UNL     1      -0.000  -0.000   0.000  0.00  0.00    +0.121 A 
ATOM      8  C   UNL     1      -0.000  -0.000  -0.000  0.00  0.00    +0.049 A 
ATOM      9  C   UNL     1      -0.000  -0.000   0.000  0.00  0.00    -0.040 A 
ATOM     10  C   UNL     1      -0.000  -0.000   0.000  0.00  0.00    +0.036 C 
ATOM     11  C   UNL     1      -0.000  -0.000   0.000  0.00  0.00    +0.009 C 
ATOM     12  C   UNL     1      -0.000  -0.000  -0.000  0.00  0.00    +0.011 C 
ATOM     13  C   UNL     1      -0.000  -0.000   0.000  0.00  0.00    +0.009 C 
ATOM     14  C   UNL     1      -0.000  -0.000  -0.000  0.00  0.00    +0.011 C 
ATOM     15  C   UNL     1      -0.000  -0.000   0.000  0.00  0.00    +0.015 C 
ATOM     16  C   UNL     1      -0.000  -0.000   0.000  0.00  0.00    +0.132 C 
ATOM     17  C   UNL     1      -0.000  -0.000   0.000  0.00  0.00    +0.049 C 
ATOM     18  C   UNL     1      -0.000  -0.000   0.000  0.00  0.00    +0.008 C 
ENDROOT
BRANCH  16  19
ATOM     19  O   UNL     1      -0.000  -0.000   0.000  0.00  0.00    -0.376 OA
ATOM     20  H   UNL     1       0.000   0.000   0.000  0.00  0.00    +0.211 HD
ENDBRANCH  16  19
BRANCH  16  21
ATOM     21  C   UNL     1      -0.000  -0.000  -0.000  0.00  0.00    -0.070 C 
ATOM     22  C   UNL     1      -0.000  -0.000  -0.000  0.00  0.00    +0.007 C 
ENDBRANCH  16  21
BRANCH   7  23
ATOM     23  O   UNL     1      -0.000  -0.000   0.000  0.00  0.00    -0.489 OA
BRANCH  23  24
ATOM     24  C   UNL     1      -0.000  -0.000  -0.000  0.00  0.00    +0.173 C 
ATOM     25  C   UNL     1      -0.000  -0.000   0.000  0.00  0.00    +0.044 C 
ATOM     26  C   UNL     1      -0.000  -0.000   0.000  0.00  0.00    +0.004 C 
ATOM     27  C   UNL     1      -0.000  -0.000   0.000  0.00  0.00    +0.004 C 
ATOM     28  C   UNL     1      -0.000  -0.000   0.000  0.00  0.00    +0.044 C 
ENDBRANCH  23  24
ENDBRANCH   7  23
TORSDOF 4
