REMARK  Name = 
REMARK  6 active torsions:
REMARK  status: ('A' for Active; 'I' for Inactive)
REMARK    1  A    between atoms: C_6  and  O_7
REMARK    2  A    between atoms: C_6  and  C_8
REMARK    3  A    between atoms: C_8  and  C_9
REMARK    4  A    between atoms: C_9  and  C_10
REMARK    5  A    between atoms: C_13  and  C_14
REMARK    6  A    between atoms: C_29  and  C_30
REMARK                            x       y       z     vdW  Elec       q    Type
REMARK                         _______ _______ _______ _____ _____    ______ ____
ROOT
ATOM      1  K   UNL     1       0.000   0.000  -0.000  0.00  0.00    +0.000 K 
ENDROOT
TORSDOF 0
REMARK  Name = 
REMARK  6 active torsions:
REMARK  status: ('A' for Active; 'I' for Inactive)
REMARK    1  A    between atoms: C_6  and  O_7
REMARK    2  A    between atoms: C_6  and  C_8
REMARK    3  A    between atoms: C_8  and  C_9
REMARK    4  A    between atoms: C_9  and  C_10
REMARK    5  A    between atoms: C_13  and  C_14
REMARK    6  A    between atoms: C_29  and  C_30
REMARK                            x       y       z     vdW  Elec       q    Type
REMARK                         _______ _______ _______ _____ _____    ______ ____
ROOT
ATOM      1  C   UNL     1      -0.000  -0.000  -0.000  0.00  0.00    +0.000 C 
ATOM      2  C   UNL     1      -0.000  -0.000  -0.000  0.00  0.00    +0.000 C 
ATOM      3  C   UNL     1      -0.000  -0.000  -0.000  0.00  0.00    +0.000 C 
ATOM      4  C   UNL     1      -0.000  -0.000   0.000  0.00  0.00    +0.000 C 
ATOM      5  C   UNL     1      -0.000  -0.000   0.000  0.00  0.00    +0.000 C 
ATOM      6  C   UNL     1      -0.000  -0.000   0.000  0.00  0.00    +0.000 C 
ATOM      7  C   UNL     1      -0.000  -0.000   0.000  0.00  0.00    +0.000 C 
ATOM      8  C   UNL     1      -0.000  -0.000   0.000  0.00  0.00    +0.000 C 
ATOM      9  C   UNL     1      -0.000  -0.000  -0.000  0.00  0.00    +0.000 C 
ATOM     10  C   UNL     1      -0.000  -0.000   0.000  0.00  0.00    +0.000 C 
ATOM     11  O   UNL     1      -0.000  -0.000   0.000  0.00  0.00    +0.000 OA
ATOM     12  C   UNL     1      -0.000  -0.000   0.000  0.00  0.00    +0.000 C 
ATOM     13  C   UNL     1      -0.000  -0.000   0.000  0.00  0.00    +0.000 C 
ATOM     14  C   UNL     1      -0.000  -0.000   0.000  0.00  0.00    +0.000 C 
ATOM     15  C   UNL     1      -0.000  -0.000  -0.000  0.00  0.00    +0.000 C 
ATOM     16  C   UNL     1      -0.000  -0.000  -0.000  0.00  0.00    +0.000 C 
ATOM     17  C   UNL     1      -0.000  -0.000   0.000  0.00  0.00    +0.000 C 
ATOM     18  C   UNL     1      -0.000  -0.000   0.000  0.00  0.00    +0.000 C 
ATOM     19  C   UNL     1      -0.000  -0.000   0.000  0.00  0.00    +0.000 C 
ATOM     20  C   UNL     1      -0.000  -0.000   0.000  0.00  0.00    +0.000 C 
ENDROOT
BRANCH  18  21
ATOM     21  O   UNL     1      -0.000  -0.000   0.000  0.00  0.00    +0.000 OA
ATOM     22  H   UNL     1       0.000   0.000   0.000  0.00  0.00    +0.000 HD
ENDBRANCH  18  21
BRANCH  18  23
ATOM     23  C   UNL     1      -0.000  -0.000  -0.000  0.00  0.00    +0.000 C 
BRANCH  23  24
ATOM     24  C   UNL     1      -0.000  -0.000   0.000  0.00  0.00    +0.000 C 
BRANCH  24  25
ATOM     25  C   UNL     1      -0.000  -0.000  -0.000  0.00  0.00    +0.000 C 
ATOM     26  O   UNL     1      -0.000  -0.000  -0.000  0.00  0.00    -0.500 OA
ATOM     27  O   UNL     1      -0.000  -0.000  -0.000  0.00  0.00    -0.500 OA
ENDBRANCH  24  25
ENDBRANCH  23  24
ENDBRANCH  18  23
TORSDOF 4
